data_MAPbI3 RT XRD



_audit_creation_date				2014-12-15
_audit_creation_method				'generated by Balls & Sticks  ver. 1.52'
_chemical_name_common				'MAPbI3;'


_cell_length_a					8.8000
_cell_length_b					8.8000
_cell_length_c					12.6850
_cell_angle_alpha					90.0000
_cell_angle_beta					90.0000
_cell_angle_gamma					90.0000
_cell_volume					982.3264


_symmetry_space_group_name_H-M		'I 4/m c m'
_symmetry_Int_Tables_number			140
#_symmetry_space_group_setting		1


loop_ 
_atom_site_label 
_atom_site_type_symbol 
_atom_site_fract_x 
_atom_site_fract_y 
_atom_site_fract_z 
_atom_site_occupancy 
_atom_site_thermal_displace_type 
_atom_site_U_iso_or_equiv 
Pb1	Pb	0.000000	0.000000	0.000000	1.000000	Uiso	0.001500
I1	I	0.203900	0.296100	0.000000	1.000000	Uiso	0.001500
I2	I	0.000000	0.000000	0.250000	1.000000	Uiso	0.001500
C	C	0.555000	0.945000	0.264000	1.000000	Uiso	0.001500
N	N	0.459000	0.041000	0.202000	1.000000	Uiso	0.001500
