data_CH3ND3PbCl3 80K Pnma neutron structure



_audit_creation_date				2014-10-08
_audit_creation_method				'generated by Balls & Sticks  ver. 1.52'
_chemical_name_common				'CH3ND3PbCl3 T=80K'


_cell_length_a					11.1747
_cell_length_b					11.3552
_cell_length_c					11.2820
_cell_angle_alpha					90.0000
_cell_angle_beta					90.0000
_cell_angle_gamma					90.0000
_cell_volume					1431.5837


_symmetry_space_group_name_H-M		'P n m a'
_symmetry_Int_Tables_number			62
#_symmetry_space_group_setting		1


loop_ 
_atom_site_label 
_atom_site_type_symbol 
_atom_site_fract_x 
_atom_site_fract_y 
_atom_site_fract_z 
_atom_site_occupancy 
_atom_site_thermal_displace_type 
_atom_site_U_iso_or_equiv 
1	Pb	0.243640	0.501600	0.225150	1.000000	Uiso	0.000000
2	Cl	0.220800	0.250000	0.219300	1.000000	Uiso	0.000000
3	Cl	0.280900	0.472500	0.472000	1.000000	Uiso	0.000000
4	Cl	-0.015400	0.468300	0.295100	1.000000	Uiso	0.000000
5	Cl	0.278700	0.750000	0.222000	1.000000	Uiso	0.000000
6	C	0.519700	0.250000	0.545200	1.000000	Uiso	0.000000
7	N	0.461600	0.250000	0.427400	1.000000	Uiso	0.000000
8	H	0.451900	0.250000	0.613500	1.000000	Uiso	0.000000
9	H	0.574800	0.172340	0.554100	1.000000	Uiso	0.000000
11	D	0.526200	0.250000	0.362300	1.000000	Uiso	0.000000
12	D	0.409100	0.324060	0.418900	1.000000	Uiso	0.000000
13	D	0.409100	0.175930	0.418900	1.000000	Uiso	0.000000
14	C	-0.058500	0.250000	0.540900	1.000000	Uiso	0.000000
15	N	0.055900	0.250000	0.474800	1.000000	Uiso	0.000000
17	H	-0.063400	0.172340	0.595900	1.000000	Uiso	0.000000
18	H	-0.063400	0.327660	0.595900	1.000000	Uiso	0.000000
19	D	0.126200	0.250000	0.533900	1.000000	Uiso	0.000000
20	D	0.060600	0.324060	0.422300	1.000000	Uiso	0.000000
21	D	0.060600	0.175930	0.422300	1.000000	Uiso	0.000000
